%mem=5000MB
%Nprocshared=6
%chk=gwp1_V1_dd_data.chk
#P UHF/6-31g* IOP(7/33=1) IOP(7/8=11)
Freq

Distorted Ethanol

1 2
6                  0.190327       4.927098      -1.347077
9                  1.481734       4.859965      -1.273379
9                 -0.351850       5.630976      -0.418612
9                 -4.770514      -8.005763       4.375489
9                 -0.059820       5.315358      -2.563514

