%mem=5000MB
%Nprocshared=6
%chk=gwp12_V1_dd_data.chk
#P UHF/6-31g* IOP(7/33=1) IOP(7/8=11)
Freq

Distorted Ethanol

1 2
6                 -0.209416       5.098284      -0.888162
9                  0.472239       4.080497      -0.346032
9                  0.111507       6.208740      -0.378248
9                 -2.722915      -8.067488       3.090195
9                 -0.448002       5.032415      -2.071157

