%mem=5000MB
%Nprocshared=6
%chk=gwp15_V1_dd_data.chk
#P UHF/6-31g* IOP(7/33=1) IOP(7/8=11)
Freq

Distorted Ethanol

1 2
6                 -0.051761       4.395403      -0.873127
9                  1.132957       4.068248      -0.653506
9                 -0.491813       5.131721       0.076484
9                 -3.673113      -6.854787       3.395523
9                 -0.245806       4.906310      -1.959851

