%mem=5000MB
%Nprocshared=6
%chk=gwp19_V1_dd_data.chk
#P UHF/6-31g* IOP(7/33=1) IOP(7/8=11)
Freq

Distorted Ethanol

1 2
6                 -0.669327       5.616563      -0.843813
9                 -0.477965       4.489836      -0.184164
9                 -0.041261       6.522709      -0.401451
9                 -2.344015      -9.032749       2.942594
9                 -0.789527       5.352460      -2.011245

