%mem=5000MB
%Nprocshared=6
%chk=gwp17_V1_dd_data.chk
#P UHF/6-31g* IOP(7/33=1) IOP(7/8=11)
Freq

Distorted Ethanol

1 2
6                  0.577855       4.545215      -1.404198
9                  1.687541       5.124109      -1.333280
9                 -0.097556       4.655799      -0.358930
9                 -5.825039      -6.345509       4.649147
9                 -0.045732       4.880832      -2.461365

