%mem=5000MB
%Nprocshared=6
%chk=gwp18_V1_dd_data.chk
#P UHF/6-31g* IOP(7/33=1) IOP(7/8=11)
Freq

Distorted Ethanol

1 2
6                 -0.090372       5.549234      -0.959576
9                  0.758240       4.808708      -0.486180
9                  0.191123       6.759064      -0.854172
9                 -2.743283      -9.995487       3.057634
9                 -0.516667       5.270188      -2.084359

