%mem=5000MB
%Nprocshared=6
%chk=gwp13_V1_dd_data.chk
#P UHF/6-31g* IOP(7/33=1) IOP(7/8=11)
Freq

Distorted Ethanol

1 2
6                  0.099880       4.840925      -0.982720
9                  1.351173       4.472105      -0.880999
9                 -0.364070       5.422303      -0.104970
9                 -3.892070      -7.344224       3.565658
9                 -0.241667       5.068608      -2.111018

