%mem=5000MB
%Nprocshared=6
%chk=gwp14_V1_dd_data.chk
#P UHF/6-31g* IOP(7/33=1) IOP(7/8=11)
Freq

Distorted Ethanol

1 2
6                  0.151538       4.851122      -1.044893
9                  1.369019       4.603755      -0.966982
9                 -0.425556       5.157199      -0.083255
9                 -4.430992      -6.939590       3.938881
9                 -0.317276       5.054544      -2.122436

