%mem=5000MB
%Nprocshared=6
%chk=gwp10_V1_dd_data.chk
#P UHF/6-31g* IOP(7/33=1) IOP(7/8=11)
Freq

Distorted Ethanol

1 2
6                 -0.262606       5.185948      -0.829470
9                  0.476756       4.230303      -0.365017
9                  0.163794       6.313275      -0.509818
9                 -3.032788      -7.784671       3.645309
9                 -0.413333       5.061316      -2.023525

