%mem=5000MB
%Nprocshared=6
%chk=gwp11_V1_dd_data.chk
#P UHF/6-31g* IOP(7/33=1) IOP(7/8=11)
Freq

Distorted Ethanol

1 2
6                  1.359507       4.771204      -1.570143
9                  1.861790       5.800757      -1.054181
9                  1.003461       3.878974      -0.612268
9                 -7.248916      -6.780434       5.277883
9                  0.454322       4.900417      -2.441630

