%mem=5000MB
%Nprocshared=6
%chk=gwp20_V1_dd_data.chk
#P UHF/6-31g* IOP(7/33=1) IOP(7/8=11)
Freq

Distorted Ethanol

1 2
6                 -0.427922       5.250711      -0.748525
9                  0.104864       4.234585      -0.139898
9                  0.114245       6.345964      -0.415694
9                 -2.287758      -8.208942       2.842442
9                 -0.753179       5.127255      -1.915384

