%mem=5000MB
%Nprocshared=6
%chk=gwp3_V1_dd_data.chk
#P UHF/6-31g* IOP(7/33=1) IOP(7/8=11)
Freq

Distorted Ethanol

1 2
6                  0.434053       4.679611      -1.022368
9                  1.689659       4.715175      -0.950725
9                 -0.138247       5.224888      -0.077737
9                 -4.412388      -6.698032       3.921360
9                 -0.010454       5.031976      -2.151233

