%mem=5000MB
%Nprocshared=6
%chk=gwp4_V1_dd_data.chk
#P UHF/6-31g* IOP(7/33=1) IOP(7/8=11)
Freq

Distorted Ethanol

1 2
6                  1.273230       4.805431      -1.650239
9                  2.136919       5.754424      -1.629054
9                  0.880311       4.269762      -0.591976
9                 -7.869861      -6.770815       5.558984
9                  0.585860       4.678751      -2.639031

