%mem=5000MB
%Nprocshared=6
%chk=gwp5_V1_dd_data.chk
#P UHF/6-31g* IOP(7/33=1) IOP(7/8=11)
Freq

Distorted Ethanol

1 2
6                  0.837109       4.595972      -1.251357
9                  1.852714       5.303324      -1.088406
9                  0.138608       4.370554      -0.230904
9                 -6.142559      -6.718085       4.793858
9                  0.133395       4.935476      -2.257166

