%mem=5000MB
%Nprocshared=6
%chk=gwp8_V1_dd_data.chk
#P UHF/6-31g* IOP(7/33=1) IOP(7/8=11)
Freq

Distorted Ethanol

1 2
6                  0.149937       4.773592      -0.952225
9                  1.331824       4.579402      -0.848430
9                 -0.354840       5.473264      -0.027643
9                 -3.939886      -7.511792       3.609720
9                 -0.249415       5.108255      -2.143636

