%mem=5000MB
%Nprocshared=6
%chk=gwp9_V1_dd_data.chk
#P UHF/6-31g* IOP(7/33=1) IOP(7/8=11)
Freq

Distorted Ethanol

1 2
6                  0.830779       4.562320      -1.337046
9                  1.631012       5.493778      -1.516135
9                  0.140405       4.627156      -0.229976
9                 -5.828842      -6.500015       4.528255
9                  0.188044       4.255547      -2.425728

