%mem=5000MB
%Nprocshared=1
%chk=gwp1_V1_dd_data.chk
#P UHF/6-31g* SCF(XQC,Conver=7) IOP(7/33=1) IOP(7/8=11)
Freq

CF4+

1 2
6                  0.121109       4.786169      -1.047704
9                  1.327892       4.523413      -0.902435
9                 -0.339549       5.512092      -0.150406
9                 -4.135501      -7.344979       3.908128
9                 -0.168413       5.169205      -2.193524

